<?xml version="1.0" encoding="UTF-8"?>
<!-- generated on 2022-01-27 12:07:36 with exp:1000.00, endT:3600.00 maxS:100.0 -->
<routes xmlns:xsi="http://www.w3.org/2001/XMLSchema-instance" xsi:noNamespaceSchemaLocation="http://sumo.dlr.de/xsd/routes_file.xsd">
	<trip id="1" depart="1.70" from="wdown-wmain" to="eup-emain"/>
	<trip id="2" depart="2.20" from="wdown-wmain" to="eup-emain"/>
	<trip id="3" depart="4.50" from="eup-emain" to="wdown-wmain"/>
	<trip id="4" depart="15.60" from="eup-emain" to="wdown-wmain"/>
	<trip id="5" depart="17.30" from="wdown-wmain" to="eup-emain"/>
	<trip id="6" depart="18.80" from="eup-emain" to="wdown-wmain"/>
	<trip id="7" depart="19.60" from="eup-emain" to="wdown-wmain"/>
	<trip id="8" depart="21.10" from="wdown-wmain" to="eup-emain"/>
	<trip id="9" depart="28.20" from="wdown-wmain" to="eup-emain"/>
	<trip id="10" depart="37.40" from="wdown-wmain" to="eup-emain"/>
	<trip id="11" depart="39.70" from="eup-emain" to="wdown-wmain"/>
	<trip id="12" depart="40.80" from="wdown-wmain" to="eup-emain"/>
	<trip id="13" depart="41.70" from="eup-emain" to="wdown-wmain"/>
	<trip id="14" depart="50.80" from="eup-emain" to="wdown-wmain"/>
	<trip id="15" depart="59.40" from="wdown-wmain" to="eup-emain"/>
	<trip id="16" depart="63.90" from="eup-emain" to="wdown-wmain"/>
	<trip id="17" depart="72.40" from="wdown-wmain" to="eup-emain"/>
	<trip id="18" depart="72.90" from="eup-emain" to="wdown-wmain"/>
	<trip id="19" depart="75.30" from="wdown-wmain" to="eup-emain"/>
	<trip id="20" depart="75.90" from="wdown-wmain" to="eup-emain"/>
	<trip id="21" depart="79.50" from="eup-emain" to="wdown-wmain"/>
	<trip id="22" depart="81.10" from="wdown-wmain" to="eup-emain"/>
	<trip id="23" depart="85.60" from="wdown-wmain" to="eup-emain"/>
	<trip id="24" depart="99.30" from="wdown-wmain" to="eup-emain"/>
	<trip id="25" depart="99.90" from="eup-emain" to="wdown-wmain"/>
	<trip id="26" depart="100.30" from="wdown-wmain" to="eup-emain"/>
	<trip id="27" depart="101.60" from="wdown-wmain" to="eup-emain"/>
	<trip id="28" depart="105.10" from="wdown-wmain" to="eup-emain"/>
	<trip id="29" depart="105.40" from="wdown-wmain" to="eup-emain"/>
	<trip id="30" depart="112.80" from="wdown-wmain" to="eup-emain"/>
	<trip id="31" depart="114.30" from="eup-emain" to="wdown-wmain"/>
	<trip id="32" depart="121.20" from="eup-emain" to="wdown-wmain"/>
	<trip id="33" depart="128.00" from="wdown-wmain" to="eup-emain"/>
	<trip id="34" depart="128.50" from="eup-emain" to="wdown-wmain"/>
	<trip id="35" depart="130.00" from="wdown-wmain" to="eup-emain"/>
	<trip id="36" depart="133.90" from="eup-emain" to="wdown-wmain"/>
	<trip id="37" depart="134.50" from="eup-emain" to="wdown-wmain"/>
	<trip id="38" depart="144.70" from="eup-emain" to="wdown-wmain"/>
	<trip id="39" depart="144.90" from="eup-emain" to="wdown-wmain"/>
	<trip id="40" depart="147.50" from="eup-emain" to="wdown-wmain"/>
	<trip id="41" depart="147.50" from="wdown-wmain" to="eup-emain"/>
	<trip id="42" depart="149.60" from="eup-emain" to="wdown-wmain"/>
	<trip id="43" depart="151.00" from="eup-emain" to="wdown-wmain"/>
	<trip id="44" depart="160.10" from="wdown-wmain" to="eup-emain"/>
	<trip id="45" depart="160.80" from="eup-emain" to="wdown-wmain"/>
	<trip id="46" depart="164.60" from="eup-emain" to="wdown-wmain"/>
	<trip id="47" depart="167.00" from="eup-emain" to="wdown-wmain"/>
	<trip id="48" depart="172.70" from="eup-emain" to="wdown-wmain"/>
	<trip id="49" depart="181.60" from="wdown-wmain" to="eup-emain"/>
	<trip id="50" depart="183.40" from="wdown-wmain" to="eup-emain"/>
	<trip id="51" depart="183.60" from="eup-emain" to="wdown-wmain"/>
	<trip id="52" depart="186.70" from="eup-emain" to="wdown-wmain"/>
	<trip id="53" depart="194.00" from="eup-emain" to="wdown-wmain"/>
	<trip id="54" depart="194.60" from="eup-emain" to="wdown-wmain"/>
	<trip id="55" depart="213.00" from="wdown-wmain" to="eup-emain"/>
	<trip id="56" depart="213.70" from="wdown-wmain" to="eup-emain"/>
	<trip id="57" depart="213.90" from="wdown-wmain" to="eup-emain"/>
	<trip id="58" depart="217.20" from="wdown-wmain" to="eup-emain"/>
	<trip id="59" depart="218.50" from="wdown-wmain" to="eup-emain"/>
	<trip id="60" depart="219.70" from="eup-emain" to="wdown-wmain"/>
	<trip id="61" depart="226.70" from="wdown-wmain" to="eup-emain"/>
	<trip id="62" depart="230.60" from="eup-emain" to="wdown-wmain"/>
	<trip id="63" depart="233.10" from="eup-emain" to="wdown-wmain"/>
	<trip id="64" depart="236.40" from="eup-emain" to="wdown-wmain"/>
	<trip id="65" depart="241.30" from="wdown-wmain" to="eup-emain"/>
	<trip id="66" depart="241.90" from="wdown-wmain" to="eup-emain"/>
	<trip id="67" depart="242.70" from="eup-emain" to="wdown-wmain"/>
	<trip id="68" depart="245.00" from="wdown-wmain" to="eup-emain"/>
	<trip id="69" depart="253.70" from="wdown-wmain" to="eup-emain"/>
	<trip id="70" depart="255.70" from="wdown-wmain" to="eup-emain"/>
	<trip id="71" depart="257.60" from="eup-emain" to="wdown-wmain"/>
	<trip id="72" depart="264.60" from="wdown-wmain" to="eup-emain"/>
	<trip id="73" depart="272.30" from="wdown-wmain" to="eup-emain"/>
	<trip id="74" depart="274.80" from="wdown-wmain" to="eup-emain"/>
	<trip id="75" depart="275.20" from="eup-emain" to="wdown-wmain"/>
	<trip id="76" depart="275.70" from="eup-emain" to="wdown-wmain"/>
	<trip id="77" depart="277.40" from="wdown-wmain" to="eup-emain"/>
	<trip id="78" depart="282.10" from="eup-emain" to="wdown-wmain"/>
	<trip id="79" depart="285.50" from="wdown-wmain" to="eup-emain"/>
	<trip id="80" depart="288.30" from="eup-emain" to="wdown-wmain"/>
	<trip id="81" depart="292.30" from="eup-emain" to="wdown-wmain"/>
	<trip id="82" depart="292.40" from="wdown-wmain" to="eup-emain"/>
	<trip id="83" depart="293.40" from="wdown-wmain" to="eup-emain"/>
	<trip id="84" depart="293.60" from="eup-emain" to="wdown-wmain"/>
	<trip id="85" depart="295.00" from="wdown-wmain" to="eup-emain"/>
	<trip id="86" depart="296.90" from="wdown-wmain" to="eup-emain"/>
	<trip id="87" depart="300.40" from="eup-emain" to="wdown-wmain"/>
	<trip id="88" depart="303.50" from="wdown-wmain" to="eup-emain"/>
	<trip id="89" depart="303.60" from="eup-emain" to="wdown-wmain"/>
	<trip id="90" depart="305.70" from="eup-emain" to="wdown-wmain"/>
	<trip id="91" depart="307.10" from="eup-emain" to="wdown-wmain"/>
	<trip id="92" depart="310.00" from="wdown-wmain" to="eup-emain"/>
	<trip id="93" depart="312.30" from="eup-emain" to="wdown-wmain"/>
	<trip id="94" depart="318.90" from="eup-emain" to="wdown-wmain"/>
	<trip id="95" depart="333.50" from="eup-emain" to="wdown-wmain"/>
	<trip id="96" depart="337.90" from="eup-emain" to="wdown-wmain"/>
	<trip id="97" depart="340.50" from="wdown-wmain" to="eup-emain"/>
	<trip id="98" depart="353.60" from="eup-emain" to="wdown-wmain"/>
	<trip id="99" depart="366.00" from="eup-emain" to="wdown-wmain"/>
	<trip id="100" depart="378.40" from="eup-emain" to="wdown-wmain"/>
	<trip id="101" depart="383.10" from="eup-emain" to="wdown-wmain"/>
	<trip id="102" depart="389.60" from="wdown-wmain" to="eup-emain"/>
	<trip id="103" depart="389.80" from="wdown-wmain" to="eup-emain"/>
	<trip id="104" depart="392.10" from="eup-emain" to="wdown-wmain"/>
	<trip id="105" depart="393.10" from="wdown-wmain" to="eup-emain"/>
	<trip id="106" depart="393.20" from="wdown-wmain" to="eup-emain"/>
	<trip id="107" depart="394.60" from="eup-emain" to="wdown-wmain"/>
	<trip id="108" depart="399.70" from="wdown-wmain" to="eup-emain"/>
	<trip id="109" depart="405.60" from="eup-emain" to="wdown-wmain"/>
	<trip id="110" depart="407.00" from="wdown-wmain" to="eup-emain"/>
	<trip id="111" depart="408.90" from="wdown-wmain" to="eup-emain"/>
	<trip id="112" depart="409.80" from="wdown-wmain" to="eup-emain"/>
	<trip id="113" depart="410.00" from="wdown-wmain" to="eup-emain"/>
	<trip id="114" depart="410.50" from="wdown-wmain" to="eup-emain"/>
	<trip id="115" depart="415.50" from="wdown-wmain" to="eup-emain"/>
	<trip id="116" depart="417.40" from="eup-emain" to="wdown-wmain"/>
	<trip id="117" depart="421.20" from="wdown-wmain" to="eup-emain"/>
	<trip id="118" depart="426.80" from="wdown-wmain" to="eup-emain"/>
	<trip id="119" depart="439.70" from="wdown-wmain" to="eup-emain"/>
	<trip id="120" depart="443.50" from="eup-emain" to="wdown-wmain"/>
	<trip id="121" depart="443.60" from="eup-emain" to="wdown-wmain"/>
	<trip id="122" depart="445.00" from="eup-emain" to="wdown-wmain"/>
	<trip id="123" depart="445.50" from="wdown-wmain" to="eup-emain"/>
	<trip id="124" depart="452.10" from="eup-emain" to="wdown-wmain"/>
	<trip id="125" depart="452.40" from="wdown-wmain" to="eup-emain"/>
	<trip id="126" depart="455.00" from="eup-emain" to="wdown-wmain"/>
	<trip id="127" depart="460.60" from="eup-emain" to="wdown-wmain"/>
	<trip id="128" depart="462.10" from="eup-emain" to="wdown-wmain"/>
	<trip id="129" depart="463.50" from="wdown-wmain" to="eup-emain"/>
	<trip id="130" depart="469.40" from="eup-emain" to="wdown-wmain"/>
	<trip id="131" depart="476.40" from="wdown-wmain" to="eup-emain"/>
	<trip id="132" depart="480.10" from="eup-emain" to="wdown-wmain"/>
	<trip id="133" depart="480.40" from="wdown-wmain" to="eup-emain"/>
	<trip id="134" depart="483.80" from="eup-emain" to="wdown-wmain"/>
	<trip id="135" depart="484.70" from="wdown-wmain" to="eup-emain"/>
	<trip id="136" depart="494.30" from="eup-emain" to="wdown-wmain"/>
	<trip id="137" depart="495.20" from="eup-emain" to="wdown-wmain"/>
	<trip id="138" depart="498.00" from="wdown-wmain" to="eup-emain"/>
	<trip id="139" depart="508.30" from="wdown-wmain" to="eup-emain"/>
	<trip id="140" depart="509.20" from="eup-emain" to="wdown-wmain"/>
	<trip id="141" depart="514.90" from="eup-emain" to="wdown-wmain"/>
	<trip id="142" depart="522.10" from="wdown-wmain" to="eup-emain"/>
	<trip id="143" depart="530.80" from="eup-emain" to="wdown-wmain"/>
	<trip id="144" depart="532.00" from="eup-emain" to="wdown-wmain"/>
	<trip id="145" depart="532.60" from="wdown-wmain" to="eup-emain"/>
	<trip id="146" depart="533.20" from="eup-emain" to="wdown-wmain"/>
	<trip id="147" depart="534.80" from="eup-emain" to="wdown-wmain"/>
	<trip id="148" depart="538.90" from="wdown-wmain" to="eup-emain"/>
	<trip id="149" depart="544.60" from="eup-emain" to="wdown-wmain"/>
	<trip id="150" depart="554.30" from="wdown-wmain" to="eup-emain"/>
	<trip id="151" depart="555.60" from="eup-emain" to="wdown-wmain"/>
	<trip id="152" depart="556.40" from="eup-emain" to="wdown-wmain"/>
	<trip id="153" depart="559.70" from="eup-emain" to="wdown-wmain"/>
	<trip id="154" depart="566.20" from="eup-emain" to="wdown-wmain"/>
	<trip id="155" depart="566.20" from="wdown-wmain" to="eup-emain"/>
	<trip id="156" depart="574.30" from="wdown-wmain" to="eup-emain"/>
	<trip id="157" depart="576.00" from="eup-emain" to="wdown-wmain"/>
	<trip id="158" depart="578.00" from="eup-emain" to="wdown-wmain"/>
	<trip id="159" depart="605.20" from="wdown-wmain" to="eup-emain"/>
	<trip id="160" depart="610.30" from="eup-emain" to="wdown-wmain"/>
	<trip id="161" depart="615.40" from="eup-emain" to="wdown-wmain"/>
	<trip id="162" depart="625.30" from="eup-emain" to="wdown-wmain"/>
	<trip id="163" depart="627.80" from="wdown-wmain" to="eup-emain"/>
	<trip id="164" depart="628.90" from="eup-emain" to="wdown-wmain"/>
	<trip id="165" depart="630.70" from="wdown-wmain" to="eup-emain"/>
	<trip id="166" depart="634.40" from="wdown-wmain" to="eup-emain"/>
	<trip id="167" depart="637.10" from="eup-emain" to="wdown-wmain"/>
	<trip id="168" depart="637.70" from="eup-emain" to="wdown-wmain"/>
	<trip id="169" depart="637.90" from="wdown-wmain" to="eup-emain"/>
	<trip id="170" depart="639.90" from="wdown-wmain" to="eup-emain"/>
	<trip id="171" depart="642.80" from="eup-emain" to="wdown-wmain"/>
	<trip id="172" depart="648.70" from="eup-emain" to="wdown-wmain"/>
	<trip id="173" depart="649.70" from="wdown-wmain" to="eup-emain"/>
	<trip id="174" depart="649.80" from="eup-emain" to="wdown-wmain"/>
	<trip id="175" depart="652.40" from="wdown-wmain" to="eup-emain"/>
	<trip id="176" depart="654.10" from="wdown-wmain" to="eup-emain"/>
	<trip id="177" depart="655.60" from="wdown-wmain" to="eup-emain"/>
	<trip id="178" depart="664.10" from="eup-emain" to="wdown-wmain"/>
	<trip id="179" depart="664.70" from="eup-emain" to="wdown-wmain"/>
	<trip id="180" depart="666.50" from="wdown-wmain" to="eup-emain"/>
	<trip id="181" depart="668.00" from="wdown-wmain" to="eup-emain"/>
	<trip id="182" depart="668.70" from="wdown-wmain" to="eup-emain"/>
	<trip id="183" depart="668.80" from="wdown-wmain" to="eup-emain"/>
	<trip id="184" depart="671.20" from="eup-emain" to="wdown-wmain"/>
	<trip id="185" depart="676.00" from="eup-emain" to="wdown-wmain"/>
	<trip id="186" depart="687.60" from="wdown-wmain" to="eup-emain"/>
	<trip id="187" depart="690.40" from="eup-emain" to="wdown-wmain"/>
	<trip id="188" depart="691.50" from="wdown-wmain" to="eup-emain"/>
	<trip id="189" depart="697.30" from="eup-emain" to="wdown-wmain"/>
	<trip id="190" depart="702.30" from="wdown-wmain" to="eup-emain"/>
	<trip id="191" depart="704.40" from="wdown-wmain" to="eup-emain"/>
	<trip id="192" depart="706.20" from="eup-emain" to="wdown-wmain"/>
	<trip id="193" depart="716.60" from="wdown-wmain" to="eup-emain"/>
	<trip id="194" depart="716.60" from="eup-emain" to="wdown-wmain"/>
	<trip id="195" depart="720.70" from="eup-emain" to="wdown-wmain"/>
	<trip id="196" depart="723.30" from="eup-emain" to="wdown-wmain"/>
	<trip id="197" depart="724.20" from="wdown-wmain" to="eup-emain"/>
	<trip id="198" depart="727.30" from="wdown-wmain" to="eup-emain"/>
	<trip id="199" depart="733.90" from="eup-emain" to="wdown-wmain"/>
	<trip id="200" depart="737.90" from="eup-emain" to="wdown-wmain"/>
	<trip id="201" depart="743.80" from="wdown-wmain" to="eup-emain"/>
	<trip id="202" depart="747.40" from="wdown-wmain" to="eup-emain"/>
	<trip id="203" depart="748.20" from="eup-emain" to="wdown-wmain"/>
	<trip id="204" depart="754.20" from="eup-emain" to="wdown-wmain"/>
	<trip id="205" depart="754.40" from="wdown-wmain" to="eup-emain"/>
	<trip id="206" depart="756.10" from="eup-emain" to="wdown-wmain"/>
	<trip id="207" depart="758.10" from="wdown-wmain" to="eup-emain"/>
	<trip id="208" depart="760.00" from="eup-emain" to="wdown-wmain"/>
	<trip id="209" depart="771.90" from="eup-emain" to="wdown-wmain"/>
	<trip id="210" depart="772.40" from="wdown-wmain" to="eup-emain"/>
	<trip id="211" depart="776.00" from="wdown-wmain" to="eup-emain"/>
	<trip id="212" depart="777.40" from="eup-emain" to="wdown-wmain"/>
	<trip id="213" depart="779.90" from="wdown-wmain" to="eup-emain"/>
	<trip id="214" depart="781.00" from="eup-emain" to="wdown-wmain"/>
	<trip id="215" depart="782.90" from="wdown-wmain" to="eup-emain"/>
	<trip id="216" depart="790.10" from="wdown-wmain" to="eup-emain"/>
	<trip id="217" depart="800.90" from="wdown-wmain" to="eup-emain"/>
	<trip id="218" depart="808.80" from="wdown-wmain" to="eup-emain"/>
	<trip id="219" depart="813.80" from="wdown-wmain" to="eup-emain"/>
	<trip id="220" depart="816.00" from="wdown-wmain" to="eup-emain"/>
	<trip id="221" depart="820.30" from="eup-emain" to="wdown-wmain"/>
	<trip id="222" depart="830.00" from="wdown-wmain" to="eup-emain"/>
	<trip id="223" depart="831.10" from="wdown-wmain" to="eup-emain"/>
	<trip id="224" depart="836.90" from="eup-emain" to="wdown-wmain"/>
	<trip id="225" depart="842.20" from="eup-emain" to="wdown-wmain"/>
	<trip id="226" depart="846.80" from="eup-emain" to="wdown-wmain"/>
	<trip id="227" depart="847.60" from="wdown-wmain" to="eup-emain"/>
	<trip id="228" depart="847.80" from="eup-emain" to="wdown-wmain"/>
	<trip id="229" depart="850.10" from="eup-emain" to="wdown-wmain"/>
	<trip id="230" depart="850.90" from="eup-emain" to="wdown-wmain"/>
	<trip id="231" depart="852.70" from="wdown-wmain" to="eup-emain"/>
	<trip id="232" depart="858.00" from="wdown-wmain" to="eup-emain"/>
	<trip id="233" depart="860.30" from="wdown-wmain" to="eup-emain"/>
	<trip id="234" depart="861.30" from="wdown-wmain" to="eup-emain"/>
	<trip id="235" depart="862.30" from="eup-emain" to="wdown-wmain"/>
	<trip id="236" depart="868.50" from="wdown-wmain" to="eup-emain"/>
	<trip id="237" depart="868.50" from="wdown-wmain" to="eup-emain"/>
	<trip id="238" depart="870.40" from="wdown-wmain" to="eup-emain"/>
	<trip id="239" depart="871.90" from="eup-emain" to="wdown-wmain"/>
	<trip id="240" depart="873.90" from="eup-emain" to="wdown-wmain"/>
	<trip id="241" depart="878.90" from="wdown-wmain" to="eup-emain"/>
	<trip id="242" depart="879.40" from="wdown-wmain" to="eup-emain"/>
	<trip id="243" depart="889.60" from="wdown-wmain" to="eup-emain"/>
	<trip id="244" depart="890.10" from="wdown-wmain" to="eup-emain"/>
	<trip id="245" depart="896.20" from="wdown-wmain" to="eup-emain"/>
	<trip id="246" depart="896.60" from="eup-emain" to="wdown-wmain"/>
	<trip id="247" depart="897.10" from="wdown-wmain" to="eup-emain"/>
	<trip id="248" depart="901.70" from="wdown-wmain" to="eup-emain"/>
	<trip id="249" depart="907.90" from="eup-emain" to="wdown-wmain"/>
	<trip id="250" depart="908.30" from="wdown-wmain" to="eup-emain"/>
	<trip id="251" depart="910.10" from="wdown-wmain" to="eup-emain"/>
	<trip id="252" depart="912.00" from="wdown-wmain" to="eup-emain"/>
	<trip id="253" depart="917.50" from="eup-emain" to="wdown-wmain"/>
	<trip id="254" depart="930.30" from="eup-emain" to="wdown-wmain"/>
	<trip id="255" depart="933.60" from="eup-emain" to="wdown-wmain"/>
	<trip id="256" depart="936.60" from="eup-emain" to="wdown-wmain"/>
	<trip id="257" depart="936.80" from="wdown-wmain" to="eup-emain"/>
	<trip id="258" depart="937.00" from="eup-emain" to="wdown-wmain"/>
	<trip id="259" depart="939.90" from="wdown-wmain" to="eup-emain"/>
	<trip id="260" depart="941.50" from="eup-emain" to="wdown-wmain"/>
	<trip id="261" depart="949.70" from="eup-emain" to="wdown-wmain"/>
	<trip id="262" depart="957.00" from="wdown-wmain" to="eup-emain"/>
	<trip id="263" depart="959.30" from="eup-emain" to="wdown-wmain"/>
	<trip id="264" depart="959.70" from="eup-emain" to="wdown-wmain"/>
	<trip id="265" depart="970.00" from="wdown-wmain" to="eup-emain"/>
	<trip id="266" depart="970.40" from="eup-emain" to="wdown-wmain"/>
	<trip id="267" depart="972.00" from="eup-emain" to="wdown-wmain"/>
	<trip id="268" depart="973.10" from="wdown-wmain" to="eup-emain"/>
	<trip id="269" depart="973.40" from="wdown-wmain" to="eup-emain"/>
	<trip id="270" depart="977.40" from="eup-emain" to="wdown-wmain"/>
	<trip id="271" depart="978.80" from="wdown-wmain" to="eup-emain"/>
	<trip id="272" depart="980.20" from="eup-emain" to="wdown-wmain"/>
	<trip id="273" depart="983.60" from="eup-emain" to="wdown-wmain"/>
	<trip id="274" depart="987.90" from="wdown-wmain" to="eup-emain"/>
	<trip id="275" depart="990.00" from="wdown-wmain" to="eup-emain"/>
	<trip id="276" depart="993.80" from="eup-emain" to="wdown-wmain"/>
	<trip id="277" depart="997.00" from="wdown-wmain" to="eup-emain"/>
	<trip id="278" depart="999.50" from="wdown-wmain" to="eup-emain"/>
	<trip id="279" depart="1004.70" from="eup-emain" to="wdown-wmain"/>
	<trip id="280" depart="1006.00" from="eup-emain" to="wdown-wmain"/>
	<trip id="281" depart="1016.20" from="eup-emain" to="wdown-wmain"/>
	<trip id="282" depart="1024.30" from="eup-emain" to="wdown-wmain"/>
	<trip id="283" depart="1030.90" from="wdown-wmain" to="eup-emain"/>
	<trip id="284" depart="1032.70" from="wdown-wmain" to="eup-emain"/>
	<trip id="285" depart="1033.10" from="eup-emain" to="wdown-wmain"/>
	<trip id="286" depart="1036.60" from="wdown-wmain" to="eup-emain"/>
	<trip id="287" depart="1037.20" from="wdown-wmain" to="eup-emain"/>
	<trip id="288" depart="1037.70" from="wdown-wmain" to="eup-emain"/>
	<trip id="289" depart="1038.60" from="eup-emain" to="wdown-wmain"/>
	<trip id="290" depart="1040.30" from="eup-emain" to="wdown-wmain"/>
	<trip id="291" depart="1045.40" from="wdown-wmain" to="eup-emain"/>
	<trip id="292" depart="1048.40" from="wdown-wmain" to="eup-emain"/>
	<trip id="293" depart="1049.40" from="wdown-wmain" to="eup-emain"/>
	<trip id="294" depart="1051.60" from="wdown-wmain" to="eup-emain"/>
	<trip id="295" depart="1052.90" from="wdown-wmain" to="eup-emain"/>
	<trip id="296" depart="1055.50" from="eup-emain" to="wdown-wmain"/>
	<trip id="297" depart="1058.40" from="eup-emain" to="wdown-wmain"/>
	<trip id="298" depart="1071.20" from="wdown-wmain" to="eup-emain"/>
	<trip id="299" depart="1071.20" from="eup-emain" to="wdown-wmain"/>
	<trip id="300" depart="1071.40" from="wdown-wmain" to="eup-emain"/>
	<trip id="301" depart="1072.20" from="eup-emain" to="wdown-wmain"/>
	<trip id="302" depart="1076.70" from="wdown-wmain" to="eup-emain"/>
	<trip id="303" depart="1078.70" from="wdown-wmain" to="eup-emain"/>
	<trip id="304" depart="1079.30" from="wdown-wmain" to="eup-emain"/>
	<trip id="305" depart="1091.60" from="eup-emain" to="wdown-wmain"/>
	<trip id="306" depart="1095.10" from="eup-emain" to="wdown-wmain"/>
	<trip id="307" depart="1098.20" from="wdown-wmain" to="eup-emain"/>
	<trip id="308" depart="1102.60" from="wdown-wmain" to="eup-emain"/>
	<trip id="309" depart="1104.40" from="wdown-wmain" to="eup-emain"/>
	<trip id="310" depart="1107.00" from="eup-emain" to="wdown-wmain"/>
	<trip id="311" depart="1108.90" from="eup-emain" to="wdown-wmain"/>
	<trip id="312" depart="1109.10" from="wdown-wmain" to="eup-emain"/>
	<trip id="313" depart="1115.60" from="eup-emain" to="wdown-wmain"/>
	<trip id="314" depart="1118.60" from="eup-emain" to="wdown-wmain"/>
	<trip id="315" depart="1127.10" from="eup-emain" to="wdown-wmain"/>
	<trip id="316" depart="1128.50" from="wdown-wmain" to="eup-emain"/>
	<trip id="317" depart="1133.90" from="eup-emain" to="wdown-wmain"/>
	<trip id="318" depart="1136.30" from="wdown-wmain" to="eup-emain"/>
	<trip id="319" depart="1138.00" from="eup-emain" to="wdown-wmain"/>
	<trip id="320" depart="1144.10" from="wdown-wmain" to="eup-emain"/>
	<trip id="321" depart="1146.30" from="wdown-wmain" to="eup-emain"/>
	<trip id="322" depart="1166.30" from="wdown-wmain" to="eup-emain"/>
	<trip id="323" depart="1170.00" from="eup-emain" to="wdown-wmain"/>
	<trip id="324" depart="1172.60" from="wdown-wmain" to="eup-emain"/>
	<trip id="325" depart="1174.20" from="eup-emain" to="wdown-wmain"/>
	<trip id="326" depart="1177.00" from="eup-emain" to="wdown-wmain"/>
	<trip id="327" depart="1178.30" from="wdown-wmain" to="eup-emain"/>
	<trip id="328" depart="1180.50" from="wdown-wmain" to="eup-emain"/>
	<trip id="329" depart="1181.90" from="eup-emain" to="wdown-wmain"/>
	<trip id="330" depart="1183.30" from="wdown-wmain" to="eup-emain"/>
	<trip id="331" depart="1183.80" from="eup-emain" to="wdown-wmain"/>
	<trip id="332" depart="1187.20" from="wdown-wmain" to="eup-emain"/>
	<trip id="333" depart="1196.70" from="wdown-wmain" to="eup-emain"/>
	<trip id="334" depart="1205.30" from="wdown-wmain" to="eup-emain"/>
	<trip id="335" depart="1213.70" from="wdown-wmain" to="eup-emain"/>
	<trip id="336" depart="1214.40" from="eup-emain" to="wdown-wmain"/>
	<trip id="337" depart="1217.80" from="eup-emain" to="wdown-wmain"/>
	<trip id="338" depart="1221.60" from="wdown-wmain" to="eup-emain"/>
	<trip id="339" depart="1225.40" from="eup-emain" to="wdown-wmain"/>
	<trip id="340" depart="1225.40" from="wdown-wmain" to="eup-emain"/>
	<trip id="341" depart="1226.20" from="eup-emain" to="wdown-wmain"/>
	<trip id="342" depart="1230.70" from="wdown-wmain" to="eup-emain"/>
	<trip id="343" depart="1233.90" from="eup-emain" to="wdown-wmain"/>
	<trip id="344" depart="1235.00" from="wdown-wmain" to="eup-emain"/>
	<trip id="345" depart="1237.90" from="wdown-wmain" to="eup-emain"/>
	<trip id="346" depart="1252.20" from="eup-emain" to="wdown-wmain"/>
	<trip id="347" depart="1262.00" from="wdown-wmain" to="eup-emain"/>
	<trip id="348" depart="1264.40" from="wdown-wmain" to="eup-emain"/>
	<trip id="349" depart="1268.70" from="wdown-wmain" to="eup-emain"/>
	<trip id="350" depart="1269.40" from="eup-emain" to="wdown-wmain"/>
	<trip id="351" depart="1274.70" from="eup-emain" to="wdown-wmain"/>
	<trip id="352" depart="1274.90" from="wdown-wmain" to="eup-emain"/>
	<trip id="353" depart="1276.30" from="wdown-wmain" to="eup-emain"/>
	<trip id="354" depart="1277.30" from="eup-emain" to="wdown-wmain"/>
	<trip id="355" depart="1280.00" from="eup-emain" to="wdown-wmain"/>
	<trip id="356" depart="1284.80" from="wdown-wmain" to="eup-emain"/>
	<trip id="357" depart="1294.00" from="eup-emain" to="wdown-wmain"/>
	<trip id="358" depart="1295.90" from="eup-emain" to="wdown-wmain"/>
	<trip id="359" depart="1297.50" from="wdown-wmain" to="eup-emain"/>
	<trip id="360" depart="1299.50" from="wdown-wmain" to="eup-emain"/>
	<trip id="361" depart="1303.00" from="wdown-wmain" to="eup-emain"/>
	<trip id="362" depart="1305.10" from="wdown-wmain" to="eup-emain"/>
	<trip id="363" depart="1312.00" from="eup-emain" to="wdown-wmain"/>
	<trip id="364" depart="1316.40" from="wdown-wmain" to="eup-emain"/>
	<trip id="365" depart="1329.80" from="eup-emain" to="wdown-wmain"/>
	<trip id="366" depart="1331.90" from="eup-emain" to="wdown-wmain"/>
	<trip id="367" depart="1339.00" from="eup-emain" to="wdown-wmain"/>
	<trip id="368" depart="1348.30" from="wdown-wmain" to="eup-emain"/>
	<trip id="369" depart="1350.40" from="wdown-wmain" to="eup-emain"/>
	<trip id="370" depart="1361.10" from="wdown-wmain" to="eup-emain"/>
	<trip id="371" depart="1362.10" from="wdown-wmain" to="eup-emain"/>
	<trip id="372" depart="1368.80" from="eup-emain" to="wdown-wmain"/>
	<trip id="373" depart="1380.80" from="eup-emain" to="wdown-wmain"/>
	<trip id="374" depart="1384.90" from="eup-emain" to="wdown-wmain"/>
	<trip id="375" depart="1385.50" from="wdown-wmain" to="eup-emain"/>
	<trip id="376" depart="1389.30" from="wdown-wmain" to="eup-emain"/>
	<trip id="377" depart="1391.30" from="eup-emain" to="wdown-wmain"/>
	<trip id="378" depart="1392.10" from="eup-emain" to="wdown-wmain"/>
	<trip id="379" depart="1393.70" from="eup-emain" to="wdown-wmain"/>
	<trip id="380" depart="1400.00" from="wdown-wmain" to="eup-emain"/>
	<trip id="381" depart="1400.40" from="eup-emain" to="wdown-wmain"/>
	<trip id="382" depart="1405.80" from="wdown-wmain" to="eup-emain"/>
	<trip id="383" depart="1411.70" from="wdown-wmain" to="eup-emain"/>
	<trip id="384" depart="1412.10" from="wdown-wmain" to="eup-emain"/>
	<trip id="385" depart="1416.30" from="wdown-wmain" to="eup-emain"/>
	<trip id="386" depart="1418.60" from="eup-emain" to="wdown-wmain"/>
	<trip id="387" depart="1419.70" from="eup-emain" to="wdown-wmain"/>
	<trip id="388" depart="1422.70" from="wdown-wmain" to="eup-emain"/>
	<trip id="389" depart="1429.00" from="eup-emain" to="wdown-wmain"/>
	<trip id="390" depart="1435.20" from="eup-emain" to="wdown-wmain"/>
	<trip id="391" depart="1439.10" from="wdown-wmain" to="eup-emain"/>
	<trip id="392" depart="1439.80" from="wdown-wmain" to="eup-emain"/>
	<trip id="393" depart="1445.50" from="wdown-wmain" to="eup-emain"/>
	<trip id="394" depart="1447.00" from="wdown-wmain" to="eup-emain"/>
	<trip id="395" depart="1447.60" from="wdown-wmain" to="eup-emain"/>
	<trip id="396" depart="1451.40" from="wdown-wmain" to="eup-emain"/>
	<trip id="397" depart="1452.60" from="wdown-wmain" to="eup-emain"/>
	<trip id="398" depart="1455.80" from="wdown-wmain" to="eup-emain"/>
	<trip id="399" depart="1458.40" from="wdown-wmain" to="eup-emain"/>
	<trip id="400" depart="1458.70" from="eup-emain" to="wdown-wmain"/>
	<trip id="401" depart="1464.40" from="wdown-wmain" to="eup-emain"/>
	<trip id="402" depart="1466.70" from="eup-emain" to="wdown-wmain"/>
	<trip id="403" depart="1471.50" from="eup-emain" to="wdown-wmain"/>
	<trip id="404" depart="1475.60" from="eup-emain" to="wdown-wmain"/>
	<trip id="405" depart="1476.20" from="eup-emain" to="wdown-wmain"/>
	<trip id="406" depart="1476.40" from="eup-emain" to="wdown-wmain"/>
	<trip id="407" depart="1478.40" from="eup-emain" to="wdown-wmain"/>
	<trip id="408" depart="1483.00" from="eup-emain" to="wdown-wmain"/>
	<trip id="409" depart="1483.70" from="wdown-wmain" to="eup-emain"/>
	<trip id="410" depart="1486.90" from="wdown-wmain" to="eup-emain"/>
	<trip id="411" depart="1489.00" from="wdown-wmain" to="eup-emain"/>
	<trip id="412" depart="1491.20" from="wdown-wmain" to="eup-emain"/>
	<trip id="413" depart="1492.80" from="wdown-wmain" to="eup-emain"/>
	<trip id="414" depart="1495.90" from="eup-emain" to="wdown-wmain"/>
	<trip id="415" depart="1497.60" from="eup-emain" to="wdown-wmain"/>
	<trip id="416" depart="1503.40" from="wdown-wmain" to="eup-emain"/>
	<trip id="417" depart="1504.00" from="eup-emain" to="wdown-wmain"/>
	<trip id="418" depart="1504.50" from="wdown-wmain" to="eup-emain"/>
	<trip id="419" depart="1512.90" from="wdown-wmain" to="eup-emain"/>
	<trip id="420" depart="1514.70" from="eup-emain" to="wdown-wmain"/>
	<trip id="421" depart="1516.80" from="eup-emain" to="wdown-wmain"/>
	<trip id="422" depart="1518.40" from="eup-emain" to="wdown-wmain"/>
	<trip id="423" depart="1521.30" from="wdown-wmain" to="eup-emain"/>
	<trip id="424" depart="1523.80" from="eup-emain" to="wdown-wmain"/>
	<trip id="425" depart="1525.20" from="wdown-wmain" to="eup-emain"/>
	<trip id="426" depart="1528.50" from="wdown-wmain" to="eup-emain"/>
	<trip id="427" depart="1529.10" from="eup-emain" to="wdown-wmain"/>
	<trip id="428" depart="1529.80" from="eup-emain" to="wdown-wmain"/>
	<trip id="429" depart="1532.20" from="eup-emain" to="wdown-wmain"/>
	<trip id="430" depart="1534.80" from="eup-emain" to="wdown-wmain"/>
	<trip id="431" depart="1537.50" from="eup-emain" to="wdown-wmain"/>
	<trip id="432" depart="1541.20" from="eup-emain" to="wdown-wmain"/>
	<trip id="433" depart="1549.30" from="eup-emain" to="wdown-wmain"/>
	<trip id="434" depart="1549.70" from="eup-emain" to="wdown-wmain"/>
	<trip id="435" depart="1549.80" from="eup-emain" to="wdown-wmain"/>
	<trip id="436" depart="1555.70" from="eup-emain" to="wdown-wmain"/>
	<trip id="437" depart="1557.90" from="eup-emain" to="wdown-wmain"/>